// -*- C++ -*-
// File generated by PyFoam - sorry for the ugliness

FoamFile
{
 version 2.0;
 format ascii;
 class polyBoundaryMesh;
 location "constant/polyMesh";
 object boundary;
}

(
  cubic_boundary

  {
    type wall;
    inGroups List<word>         1          (
          wall
        )
;
    nFaces 600;
    startFace 2700;

  }
  ChangeBoundaryName_Test

  {
    nFaces 0;
    startFace 3300;
    type ChangeBoundaryType_Test;

  }
)
